Circuit: * C:\ComCode\Watch\Hardware\LtSpice\zener_regulator_test.asc

C1: Increased Cpar to 1e-014
Direct Newton iteration for .op point succeeded.

Date: Tue Jun 14 22:23:18 2022
Total elapsed time: 0.049 seconds.

tnom = 27
temp = 27
method = modified trap
totiter = 2160
traniter = 2128
tranpoints = 1065
accept = 1061
rejected = 4
matrix size = 4
fillins = 0
solver = Normal
Matrix Compiler1: 100 bytes object code size  0.0/0.1/[0.0]
Matrix Compiler2: 248 bytes object code size  0.0/0.0/[0.0]

