Circuit: * C:\ComCode\Watch\Hardware\LtSpice\charger.asc

Direct Newton iteration for .op point succeeded.

Date: Tue Jun 14 22:21:46 2022
Total elapsed time: 0.047 seconds.

tnom = 27
temp = 27
method = modified trap
totiter = 2122
traniter = 2090
tranpoints = 1046
accept = 1046
rejected = 0
matrix size = 4
fillins = 0
solver = Normal
Matrix Compiler1:       6 opcodes  0.0/[0.0]/0.0
Matrix Compiler2: 248 bytes object code size  0.0/0.0/[0.0]

